data/rfi_simulation/der050/ckt7_Mon_rfi_05_der050.csv
fault_bus,fault_type,fault_R_ohm,Va_mag_pu,Va_ang_deg,Vb_mag_pu,Vb_ang_deg,Vc_mag_pu,Vc_ang_deg,Ia_mag_A,Ia_ang_deg,Ib_mag_A,Ib_ang_deg,Ic_mag_A,Ic_ang_deg
318412,SLG,0,0.176518,-102.7304,1.098553,-145.9814,1.028314,92.6621,1186.9441,79.3824,2143.2378,31.5252,1552.4439,-93.7394
318412,SLG,10,1.067912,-27.9768,1.068156,-147.8308,1.066943,92.0813,1734.2765,145.828,1764.9869,25.9454,1724.644,-94.3037
318412,SLG,20,1.0679,-27.9542,1.068168,-147.8315,1.066949,92.0822,1734.095,145.8501,1765.1008,25.9403,1724.7216,-94.2979
318412,SLG,30,1.067896,-27.9466,1.068172,-147.8318,1.06695,92.0825,1734.0344,145.8574,1765.1388,25.9386,1724.7474,-94.2959
318412,SLG,40,1.067895,-27.9429,1.068174,-147.8319,1.066951,92.0827,1734.0041,145.8611,1765.1578,25.9378,1724.7603,-94.295
318412,LL,0,0.167156,-113.7572,0.136883,147.3955,1.049076,93.6416,981.8188,48.387,776.2592,5.1409,1561.1911,-87.2105
318412,LL,10,1.0679,-27.9786,1.06818,-147.876,1.066919,92.0828,1734.1185,145.8163,1765.353,25.9011,1724.4154,-94.2933
318412,LL,20,1.067895,-27.9551,1.06818,-147.8541,1.066937,92.083,1734.016,145.8442,1765.284,25.9182,1724.6072,-94.2927
318412,LL,30,1.067893,-27.9473,1.06818,-147.8468,1.066942,92.083,1733.9817,145.8535,1765.261,25.9239,1724.6712,-94.2925
318412,LL,40,1.067892,-27.9433,1.06818,-147.8432,1.066945,92.0831,1733.9646,145.8582,1765.2495,25.9267,1724.7031,-94.2924
318412,3LG,0,0.134088,-108.0209,0.134084,132.0634,0.134018,11.9601,397.4734,69.4035,401.4583,-50.6118,396.0696,-170.9392
318412,3LG,10,1.067876,-27.9772,1.068168,-147.8779,1.066942,92.0375,1733.8935,145.8265,1765.1949,25.8896,1724.7795,-94.3377
318412,3LG,20,1.067883,-27.9544,1.068174,-147.855,1.066948,92.0603,1733.9035,145.8493,1765.205,25.9124,1724.7894,-94.3149
318412,3LG,30,1.067885,-27.9468,1.068176,-147.8474,1.06695,92.0679,1733.9068,145.8569,1765.2083,25.92,1724.7926,-94.3072
318412,3LG,40,1.067886,-27.943,1.068177,-147.8436,1.066951,92.0717,1733.9084,145.8607,1765.21,25.9238,1724.7943,-94.3034
243937,SLG,0,0.104476,-92.2425,1.397239,-178.603,1.691214,108.1792,1641.8281,57.7137,2998.7538,6.0569,2343.0297,-64.4622
243937,SLG,10,1.061519,-28.1191,1.07101,-148.0561,1.069174,92.3263,1725.1037,145.4697,1774.8086,25.8584,1722.047,-93.9821
243937,SLG,20,1.064695,-28.0256,1.069601,-147.9446,1.068062,92.2053,1729.4923,145.6706,1770.0281,25.8968,1723.4059,-94.1368
243937,SLG,30,1.065757,-27.9943,1.069128,-147.9072,1.067692,92.1647,1730.9624,145.7377,1768.4273,25.9096,1723.8664,-94.1885
243937,SLG,40,1.066289,-27.9786,1.068892,-147.8885,1.067508,92.1444,1731.6987,145.7713,1767.6256,25.916,1724.0982,-94.2143
243937,LL,0,0.065496,-108.5145,0.049772,-166.388,1.496821,88.9651,916.001,25.8964,936.357,14.9381,2379.2744,-91.245
243937,LL,10,1.063743,-27.8761,1.064644,-148.2433,1.071966,92.1021,1722.3268,145.7776,1765.7469,25.4609,1731.4569,-94.0587
243937,LL,20,1.065803,-27.9035,1.066407,-148.0385,1.069474,92.0929,1728.0878,145.8249,1765.4872,25.6969,1728.1384,-94.1744
243937,LL,30,1.066495,-27.9128,1.066997,-147.9699,1.068637,92.0897,1730.0221,145.8407,1765.3976,25.7761,1727.0278,-94.2134
243937,LL,40,1.066842,-27.9175,1.067292,-147.9355,1.068218,92.0881,1730.9921,145.8485,1765.3524,25.8158,1726.4715,-94.2329
243937,3LG,0,0.033173,-91.5098,0.033167,148.5541,0.03316,28.464,98.3046,85.8988,99.2996,-34.1298,97.9718,-154.4352
243937,3LG,10,1.066542,-28.0998,1.066831,-148.0008,1.065613,91.9147,1731.7224,145.7039,1762.9874,25.7666,1722.6325,-94.4604
243937,3LG,20,1.067216,-28.0157,1.067506,-147.9166,1.066284,91.9989,1732.819,145.788,1764.1023,25.8508,1723.717,-94.3763
243937,3LG,30,1.06744,-27.9877,1.067731,-147.8885,1.066508,92.0269,1733.184,145.816,1764.4735,25.879,1724.0779,-94.3482
243937,3LG,40,1.067553,-27.9737,1.067844,-147.8744,1.066619,92.041,1733.3664,145.83,1764.6589,25.893,1724.2583,-94.3342
157347,SLG,0,0.427791,-25.1021,1.160785,-164.5217,1.354223,100.6033,1250.369,119.9531,2336.0468,9.6253,2055.0852,-80.8566
157347,SLG,10,1.060212,-28.4544,1.073564,-148.0004,1.067009,92.4179,1727.5912,145.1059,1777.5846,26.057,1715.4349,-94.0049
157347,SLG,20,1.064054,-28.1952,1.070899,-147.9159,1.066953,92.2515,1730.783,145.4867,1771.4208,25.9982,1720.0513,-94.1492
157347,SLG,30,1.065333,-28.1078,1.069999,-147.888,1.066947,92.1956,1731.8334,145.6146,1769.3567,25.9777,1721.6192,-94.197
157347,SLG,40,1.065972,-28.0639,1.069546,-147.874,1.066947,92.1676,1732.356,145.6788,1768.3229,25.9672,1722.4087,-94.2208
157347,LL,0,0.507335,-30.9848,0.379801,-158.1708,1.294275,88.5143,1124.2437,138.5395,1488.8055,10.7588,2195.9487,-96.0634
157347,LL,10,1.06031,-28.1178,1.065843,-148.5224,1.07236,92.2458,1718.2197,145.3898,1770.8011,25.2947,1727.6288,-93.8815
157347,LL,20,1.064061,-28.0264,1.067052,-148.1794,1.069665,92.1669,1726.0215,145.6281,1768.1148,25.6138,1726.1527,-94.0843
157347,LL,30,1.065329,-27.9952,1.067437,-148.0641,1.068763,92.1395,1728.6422,145.7088,1767.1722,25.7207,1725.6875,-94.153
157347,LL,40,1.065965,-27.9794,1.067626,-148.0063,1.068312,92.1257,1729.9562,145.7494,1766.6919,25.7742,1725.46,-94.1875
157347,3LG,0,0.459896,-38.6931,0.459843,-158.6288,0.459694,81.2797,1347.9303,138.7161,1362.1828,18.6738,1342.0903,-101.6385
157347,3LG,10,1.065616,-28.2887,1.065914,-148.1901,1.064697,91.726,1730.218,145.5147,1761.4797,25.5773,1721.1449,-94.649
157347,3LG,20,1.066761,-28.1107,1.067056,-148.0117,1.065834,91.904,1732.0792,145.6929,1763.3614,25.7557,1722.9856,-94.4711
157347,3LG,30,1.067138,-28.0511,1.067433,-147.952,1.066209,91.9636,1732.6936,145.7525,1763.9824,25.8154,1723.5931,-94.4115
157347,3LG,40,1.067327,-28.0213,1.06762,-147.9221,1.066396,91.9934,1732.9996,145.7824,1764.2917,25.8453,1723.8957,-94.3817
298162,SLG,0,0.010307,-89.5168,1.28695,-166.6551,1.396562,105.8834,1280.5846,63.5997,2690.7756,15.0019,1814.242,-69.4216
298162,SLG,10,1.054647,-29.4864,1.081076,-147.9039,1.061736,92.7222,1731.9608,143.9479,1787.354,26.5903,1696.4829,-94.0051
298162,SLG,20,1.061323,-28.7139,1.074678,-147.8638,1.064232,92.402,1733.0917,144.9041,1776.1957,26.2715,1710.4879,-94.1553
298162,SLG,30,1.063525,-28.4542,1.072523,-147.8523,1.065114,92.2956,1733.3981,145.2255,1772.5126,26.1614,1715.2248,-94.2024
298162,SLG,40,1.064621,-28.324,1.071441,-147.8469,1.065564,92.2424,1733.5392,145.3866,1770.6794,26.1056,1717.6059,-94.2254
298162,LL,0,0.008725,-107.3956,0.00613,167.8641,1.381759,90.2517,800.6869,14.1833,809.0363,11.9774,2181.65,-88.5479
298162,LL,10,1.049415,-28.8407,1.067647,-149.4521,1.074671,92.6365,1703.592,144.2112,1784.0075,24.6685,1718.4894,-93.3319
298162,LL,20,1.058588,-28.3937,1.068071,-148.6449,1.070744,92.3674,1718.729,145.0336,1774.9439,25.3032,1721.2893,-93.8101
298162,LL,30,1.061675,-28.2414,1.068143,-148.3746,1.069464,92.2743,1723.7864,145.3113,1771.7744,25.5143,1722.3782,-93.9704
298162,LL,40,1.063223,-28.1646,1.068166,-148.2392,1.06883,92.2272,1726.3167,145.4508,1770.1621,25.6196,1722.9529,-94.0507
298162,3LG,0,0.005891,-100.6533,0.005891,139.3521,0.005891,19.3449,17.4597,76.733,17.6429,-43.3079,17.396,-163.5428
298162,3LG,10,1.062123,-28.9195,1.062486,-148.8224,1.061249,91.0973,1724.5514,144.8826,1755.8485,24.946,1715.5211,-95.2772
298162,3LG,20,1.065038,-28.4269,1.065366,-148.3287,1.064133,91.5889,1729.2869,145.3759,1760.5855,25.4393,1720.2141,-94.7859
298162,3LG,30,1.065995,-28.2621,1.066311,-148.1635,1.065081,91.7534,1730.8407,145.541,1762.1407,25.6043,1721.7537,-94.6216
298162,3LG,40,1.066471,-28.1796,1.066781,-148.0808,1.065552,91.8357,1731.6132,145.6237,1762.9138,25.687,1722.5193,-94.5393
165448,SLG,0,0.003354,-94.7676,1.291387,-166.4212,1.391495,106.0743,22975.7525,-93.5888,2700.823,15.2205,1804.2749,-69.0728
165448,SLG,10,1.05414,-29.6221,1.082051,-147.8822,1.060902,92.7573,982.8654,138.7314,1788.4254,26.6678,1693.9018,-94.0156
165448,SLG,20,1.061085,-28.7823,1.075168,-147.8521,1.063798,92.419,1354.6961,143.034,1776.7016,26.3115,1709.1845,-94.1618
165448,SLG,30,1.063369,-28.4999,1.07285,-147.8443,1.064821,92.3068,1480.3883,144.0889,1772.8424,26.1884,1714.3532,-94.207
165448,SLG,40,1.064505,-28.3583,1.071687,-147.8408,1.065343,92.2508,1543.5124,144.5706,1770.9239,26.1259,1716.9512,-94.2289
165448,LL,0,0.005076,-84.6374,0.004673,123.7708,1.381853,90.361,36443.4287,-83.3977,33345.4841,122.4929,2184.14,-88.3277
165448,LL,10,1.048061,-28.9404,1.068086,-149.5655,1.074836,92.6917,957.5235,138.5364,1023.9229,20.2211,1717.0058,-93.261
165448,LL,20,1.057912,-28.4449,1.068317,-148.7014,1.070806,92.3959,1340.3728,143.0813,1394.089,23.6095,1720.4867,-93.7753
165448,LL,30,1.061224,-28.2758,1.068313,-148.4122,1.069501,92.2935,1470.4981,144.1398,1517.7667,24.4644,1721.8291,-93.9473
165448,LL,40,1.062885,-28.1905,1.068295,-148.2674,1.068856,92.2416,1535.968,144.615,1579.6252,24.8585,1722.5357,-94.0334
165448,3LG,0,0.005457,-101.0399,0.005457,138.9594,0.005457,18.9606,39269.7695,-101.0389,39269.2933,138.9605,39269.4179,18.9618
165448,3LG,10,1.061732,-28.9985,1.062108,-148.9015,1.060864,91.0188,967.5104,139.9102,998.5303,20.0991,959.5877,-100.4256
165448,3LG,20,1.064847,-28.4666,1.065182,-148.3684,1.063946,91.5495,1348.5335,143.5777,1379.7363,23.6709,1339.9532,-96.644
165448,3LG,30,1.065869,-28.2886,1.06619,-148.19,1.064957,91.727,1476.5979,144.443,1507.8402,24.5224,1467.8317,-95.7557
165448,3LG,40,1.066377,-28.1995,1.066691,-148.1007,1.065459,91.8159,1540.7866,144.8333,1572.0459,24.9074,1531.9309,-95.3555
165449,SLG,0,0.444701,-22.4448,1.184451,-159.1654,1.241863,100.9961,13285.9983,-102.2566,2796.961,15.2649,1809.6943,-66.0889
165449,SLG,10,1.056945,-29.6945,1.081577,-147.7558,1.059063,92.6721,991.9446,135.9976,1799.9735,27.4695,1666.9088,-94.1222
165449,SLG,20,1.062694,-28.8222,1.074904,-147.7839,1.062822,92.3728,1358.7614,141.8302,1781.9308,26.7293,1695.5924,-94.2343
165449,SLG,30,1.064489,-28.5273,1.072667,-147.7977,1.064158,92.2751,1483.0819,143.3117,1776.2037,26.4704,1705.2757,-94.2595
165449,SLG,40,1.065363,-28.3791,1.071547,-147.8055,1.064842,92.2266,1545.5328,143.9962,1773.3949,26.3389,1710.1378,-94.2699
165449,LL,0,0.462521,-27.2485,0.407745,-144.898,1.246144,90.579,20759.7428,-85.2484,20458.6305,120.106,2246.7361,-87.3164
165449,LL,10,1.049106,-29.0858,1.070435,-149.5299,1.072709,92.735,949.1157,135.2755,1035.3048,18.4845,1701.9572,-92.5008
165449,LL,20,1.058555,-28.5283,1.069689,-148.6784,1.069614,92.4188,1333.1197,141.7287,1401.2469,22.8538,1712.0837,-93.4092
165449,LL,30,1.061683,-28.3338,1.069271,-148.3956,1.068676,92.309,1465.1035,143.2784,1522.9124,23.9787,1716.0295,-93.7068
165449,LL,40,1.063241,-28.2349,1.06903,-148.2544,1.068226,92.2533,1531.7249,143.9821,1583.6311,24.5003,1718.1124,-93.8544
165449,3LG,0,0.430192,-28.2532,0.430178,-148.2567,0.430199,91.7461,23217.0084,-102.6667,23216.9121,137.3334,23216.766,17.3339
165449,3LG,10,1.062422,-29.034,1.062896,-148.9378,1.061586,90.987,960.8206,137.7861,992.187,17.9724,953.5398,-102.5361
165449,3LG,20,1.065261,-28.4861,1.065646,-148.3882,1.064373,91.5319,1344.1155,142.7077,1375.5144,22.7955,1335.8401,-97.5074
165449,3LG,30,1.066161,-28.302,1.066515,-148.2035,1.065256,91.715,1473.4719,143.8908,1504.8507,23.9663,1464.907,-96.3035
165449,3LG,40,1.066601,-28.2097,1.06694,-148.111,1.065689,91.8068,1538.3804,144.4282,1569.7442,24.4994,1529.675,-95.7573
287274,SLG,0,0.602417,-29.5449,1.175959,-155.6221,1.172416,99.8701,9534.2571,-99.385,2778.2052,16.8934,1727.5984,-66.4766
287274,SLG,10,1.058394,-29.7643,1.081512,-147.6748,1.05777,92.6286,986.8422,134.291,1809.6216,27.9981,1648.0231,-94.1421
287274,SLG,20,1.063577,-28.863,1.074865,-147.7391,1.062115,92.3486,1354.7066,141.0387,1786.2499,27.0149,1685.9144,-94.2657
287274,SLG,30,1.065115,-28.5557,1.072638,-147.7669,1.063674,92.2583,1480.0949,142.793,1778.9532,26.6656,1698.7797,-94.2853
287274,SLG,40,1.065847,-28.4008,1.071524,-147.782,1.064474,92.2138,1543.1911,143.61,1775.4051,26.4871,1705.2504,-94.2911
287274,LL,0,0.657817,-32.8638,0.571793,-154.4818,1.202371,91.5861,14107.6468,-76.2763,14934.2492,129.2031,2239.739,-87.1246
287274,LL,10,1.049277,-29.1872,1.071856,-149.535,1.071508,92.7751,932.8792,133.2715,1032.3001,17.3744,1693.3691,-91.9236
287274,LL,20,1.058724,-28.5904,1.070558,-148.6791,1.06891,92.4405,1321.2788,140.8528,1399.5589,22.3553,1706.7552,-93.1326
287274,LL,30,1.061819,-28.3777,1.069885,-148.3955,1.068182,92.3237,1456.4479,142.7116,1521.7883,23.6557,1712.2463,-93.5258
287274,LL,40,1.063353,-28.2688,1.069503,-148.2541,1.067846,92.2644,1524.9554,143.5624,1582.7928,24.2613,1715.1881,-93.72
287274,3LG,0,0.620216,-35.9069,0.620178,-155.9116,0.620225,84.0912,16354.5793,-93.1721,16355.0825,146.829,16354.4642,26.8286
287274,3LG,10,1.062669,-29.0679,1.063204,-148.9732,1.061863,90.9555,946.6831,136.5103,977.9709,16.6889,939.8827,-103.7988
287274,3LG,20,1.065433,-28.5069,1.06585,-148.4095,1.064557,91.5125,1334.6872,142.1577,1366.0655,22.2408,1326.656,-98.0509
287274,3LG,30,1.066286,-28.3167,1.066663,-148.2186,1.06539,91.7012,1466.6917,143.536,1498.0627,23.6085,1458.2894,-96.654
287274,3LG,40,1.0667,-28.221,1.067056,-148.1226,1.065794,91.7961,1533.113,144.166,1564.4732,24.2349,1524.5293,-96.0164
283954,SLG,0,0.671732,-29.036,1.165352,-154.3038,1.14935,99.006,8002.3425,-102.3469,2805.5579,16.3282,1756.6071,-65.7335
283954,SLG,10,1.060006,-29.8111,1.081269,-147.5998,1.056667,92.5794,991.9429,132.6859,1816.9914,28.4702,1631.7449,-94.2074
283954,SLG,20,1.064537,-28.8867,1.074695,-147.6986,1.061545,92.3203,1357.397,140.3222,1789.2341,27.2689,1677.7445,-94.3209
283954,SLG,30,1.065791,-28.5714,1.072512,-147.7393,1.063291,92.2386,1481.9942,142.329,1780.7727,26.8385,1693.3381,-94.3269
283954,SLG,40,1.066367,-28.4126,1.071424,-147.761,1.064185,92.1987,1544.6644,143.2666,1776.7041,26.6181,1701.1728,-94.324
283954,LL,0,0.720031,-31.8353,0.644126,-152.7786,1.182011,91.825,11761.0048,-76.9472,12705.8437,127.9829,2274.8623,-87.2413
283954,LL,10,1.049731,-29.2736,1.073339,-149.5205,1.070287,92.806,928.4781,131.3921,1039.6462,16.2502,1684.9695,-91.4336
283954,LL,20,1.059091,-28.6404,1.071399,-148.6661,1.068196,92.4545,1317.4163,140.0407,1404.1297,21.8886,1701.5381,-92.9084
283954,LL,30,1.062099,-28.4124,1.070464,-148.3853,1.067683,92.3325,1453.613,142.1888,1525.075,23.3607,1708.5554,-93.3819
283954,LL,40,1.063577,-28.2953,1.069944,-148.2459,1.067463,92.2708,1522.7445,143.1764,1585.3516,24.0456,1712.3428,-93.6144
283954,3LG,0,0.685624,-34.1052,0.685572,-154.1121,0.685651,85.8921,13792.9956,-94.0016,13793.8593,146.0014,13792.7327,25.9987
283954,3LG,10,1.06307,-29.0887,1.063671,-148.994,1.062277,90.9376,943.9444,135.2391,975.5804,15.42,937.5409,-105.0462
283954,3LG,20,1.065683,-28.5186,1.066134,-148.421,1.06481,91.5023,1332.468,141.6279,1364.0526,21.7097,1324.6227,-98.5713
283954,3LG,30,1.066465,-28.3248,1.066864,-148.2264,1.06557,91.6942,1465.0751,143.198,1496.5888,23.2695,1456.7928,-96.986
283954,3LG,40,1.066839,-28.2272,1.067211,-148.1285,1.065933,91.7908,1531.8542,143.9174,1563.3233,23.9856,1523.3588,-96.2606
283956,SLG,0,0.727537,-33.629,1.170189,-152.906,1.120812,98.825,6740.9287,-92.3483,2664.6938,20.0508,1583.4673,-70.2122
283956,SLG,10,1.060012,-29.7752,1.081047,-147.6065,1.056886,92.5724,1003.239,133.2407,1816.2843,28.4193,1633.4665,-94.196
283956,SLG,20,1.064527,-28.8774,1.074641,-147.7006,1.061604,92.3188,1360.4683,140.4227,1789.1104,27.2544,1678.1876,-94.3164
283956,SLG,30,1.065785,-28.5672,1.072488,-147.7402,1.063318,92.238,1483.3985,142.3702,1780.7258,26.8318,1693.5387,-94.3246
283956,SLG,40,1.066363,-28.4102,1.071411,-147.7616,1.064201,92.1984,1545.4709,143.289,1776.6806,26.6141,1701.2877,-94.3226
283956,LL,0,0.780534,-34.2391,0.722584,-157.0906,1.170543,92.6317,9744.0871,-67.419,10539.6855,137.5955,2151.1445,-86.8114
283956,LL,10,1.05013,-29.2476,1.072969,-149.4911,1.070261,92.7885,940.9267,131.7908,1047.4654,16.7966,1686.2035,-91.4959
283956,LL,20,1.059185,-28.6329,1.071293,-148.659,1.068201,92.4499,1320.901,140.1077,1406.1429,21.9885,1701.9438,-92.9229
283956,LL,30,1.06214,-28.4089,1.070415,-148.3822,1.067687,92.3304,1455.223,142.2162,1525.9827,23.4015,1708.7521,-93.3881
283956,LL,40,1.063599,-28.2932,1.069916,-148.2441,1.067466,92.2696,1523.6739,143.1913,1585.8719,24.0676,1712.4594,-93.6178
283956,3LG,0,0.762145,-36.8529,0.762213,-156.8605,0.762177,83.1471,11434.1337,-84.4534,11433.4442,155.558,11434.8711,35.5499
283956,3LG,10,1.063068,-29.0728,1.063662,-148.978,1.062273,90.9532,952.9564,135.6244,984.5739,15.7962,946.4706,-104.6598
283956,3LG,20,1.06568,-28.5144,1.066129,-148.4168,1.064807,91.5064,1334.9599,141.6926,1366.5293,21.7737,1327.0943,-98.5064
283956,3LG,30,1.066464,-28.3229,1.066861,-148.2245,1.065568,91.6961,1466.2258,143.2241,1497.7323,23.2954,1457.9347,-96.9599
283956,3LG,40,1.066838,-28.2261,1.06721,-148.1274,1.065932,91.7919,1532.5208,143.9315,1563.9859,23.9996,1524.0206,-96.2465
189963,SLG,0,0.773882,-31.518,1.169163,-151.8525,1.101257,98.3864,5614.7765,-101.0598,2941.4367,16.1044,1785.1132,-62.1109
189963,SLG,10,1.062753,-30.1545,1.082479,-147.365,1.052239,92.5171,923.72,126.4364,1854.4501,29.9801,1571.7198,-94.05
189963,SLG,20,1.066501,-29.0686,1.075143,-147.5668,1.059188,92.2749,1319.0467,137.7665,1805.166,28.1369,1646.7418,-94.3581
189963,SLG,30,1.06724,-28.6942,1.072768,-147.6482,1.061694,92.2049,1455.9027,140.6999,1790.6526,27.441,1672.5227,-94.377
189963,SLG,40,1.067508,-28.5052,1.071598,-147.6916,1.062979,92.1721,1524.9446,142.0684,1783.8185,27.0786,1685.5176,-94.371
189963,LL,0,0.849441,-32.1369,0.772707,-155.7985,1.157714,92.6805,7186.6761,-66.8182,8691.7299,138.5262,2398.8167,-87.2227
189963,LL,10,1.047592,-29.6347,1.077774,-149.6865,1.067633,93.0021,825.5993,124.5051,986.0633,11.8209,1666.8712,-89.3671
189963,LL,20,1.058532,-28.8581,1.074018,-148.7317,1.066415,92.5493,1254.3347,137.3122,1376.3984,20.2309,1686.8138,-91.9464
189963,LL,30,1.061868,-28.5652,1.072284,-148.4244,1.066393,92.394,1409.452,140.4534,1506.5837,22.3398,1697.5462,-92.7645
189963,LL,40,1.06346,-28.4126,1.071334,-148.2733,1.066458,92.3161,1488.8894,141.9003,1571.4937,23.3082,1703.653,-93.1612
189963,3LG,0,0.825778,-35.4077,0.82576,-155.4194,0.825976,84.59,8946.9636,-82.9486,8947.1999,157.0544,8943.4001,37.0525
189963,3LG,10,1.063061,-29.2513,1.06388,-149.1597,1.062367,90.787,856.0344,130.8036,888.0039,11.0428,852.2269,-109.3506
189963,3LG,20,1.065839,-28.6125,1.066404,-148.5151,1.064995,91.4152,1280.0624,139.9406,1311.9648,20.0307,1273.5318,-100.2058
189963,3LG,30,1.066611,-28.3901,1.067085,-148.2917,1.065729,91.6335,1428.4494,142.1354,1460.1999,22.2115,1421.0319,-98.0152
189963,3LG,40,1.066964,-28.2772,1.067393,-148.1784,1.066066,91.7442,1503.7683,143.1395,1535.4234,23.2109,1495.9154,-97.014
181977,SLG,0,0.812271,-31.9897,1.164195,-151.1105,1.088832,97.8702,4757.0918,-100.1579,2875.7106,16.9438,1733.3776,-63.9718
181977,SLG,10,1.06375,-30.173,1.082278,-147.3138,1.051505,92.4814,931.651,125.7417,1861.4894,30.2811,1559.855,-94.0382
181977,SLG,20,1.067205,-29.0823,1.07499,-147.5363,1.058772,92.2523,1322.7144,137.2931,1807.7911,28.3288,1640.3304,-94.3945
181977,SLG,30,1.06776,-28.704,1.072649,-147.6269,1.061408,92.1886,1458.3201,140.3674,1792.1409,27.5776,1668.1796,-94.4108
181977,SLG,40,1.067918,-28.5127,1.071502,-147.6752,1.062762,92.1594,1526.7571,141.8136,1784.828,27.1841,1682.2403,-94.3999
181977,LL,0,0.880626,-31.9772,0.817418,-155.5386,1.147817,92.9018,5978.322,-64.3402,7366.3803,140.5087,2358.1154,-87.4758
181977,LL,10,1.04779,-29.6736,1.078691,-149.6733,1.066862,93.0248,829.3271,123.7425,995.6807,11.2069,1663.9948,-88.946
181977,LL,20,1.058783,-28.8911,1.074635,-148.7202,1.065879,92.56,1253.6739,136.7707,1381.4358,19.9044,1683.2632,-91.751
181977,LL,30,1.062084,-28.5899,1.072723,-148.4151,1.066001,92.4004,1408.4704,140.072,1510.0047,22.1245,1694.7283,-92.642
181977,LL,40,1.063642,-28.4322,1.071673,-148.2657,1.066151,92.3206,1487.96,141.6077,1574.082,23.1482,1701.3776,-93.0728
181977,3LG,0,0.863809,-34.8908,0.863878,-154.9026,0.86409,85.1105,7528.9547,-80.6435,7527.6738,159.3602,7523.8574,39.3572
181977,3LG,10,1.063325,-29.2537,1.06418,-149.1614,1.062631,90.7865,861.5788,130.2175,893.8794,10.4625,857.8861,-109.912
181977,3LG,20,1.066028,-28.618,1.066611,-148.52,1.065176,91.4108,1280.6604,139.5809,1312.7776,19.676,1274.1721,-100.5552
181977,3LG,30,1.066752,-28.3948,1.067238,-148.2958,1.065863,91.6295,1428.3495,141.8876,1460.2505,21.9673,1420.9512,-98.2564
181977,3LG,40,1.067077,-28.2811,1.067514,-148.1818,1.066173,91.7409,1503.5061,142.951,1535.2763,23.0253,1495.6634,-97.1976
181924,SLG,0,0.817846,-30.1551,1.162603,-151.2397,1.092104,97.8332,4638.5241,-108.8884,2971.2741,13.3919,1924.264,-62.4789
181924,SLG,10,1.06675,-30.3321,1.082326,-147.1553,1.048897,92.4019,929.9621,121.3902,1879.9148,31.2342,1524.1941,-94.1288
181924,SLG,20,1.069081,-29.1433,1.074727,-147.455,1.057587,92.1987,1324.7598,135.7019,1813.6661,28.8488,1623.5503,-94.5317
181924,SLG,30,1.069084,-28.7398,1.072407,-147.5728,1.060655,92.15,1460.7733,139.3941,1795.2671,27.9296,1657.3182,-94.5188
181924,SLG,40,1.068935,-28.5376,1.071296,-147.6348,1.062212,92.1294,1529.0485,141.1127,1786.8737,27.4493,1674.2282,-94.4865
181924,LL,0,0.880484,-31.2607,0.812018,-153.4969,1.146187,92.7322,5934.5121,-69.3633,7412.5556,133.9112,2465.8388,-89.5229
181924,LL,10,1.047425,-29.8882,1.082485,-149.7079,1.06459,93.1375,805.0739,119.0133,1006.141,7.8625,1650.5114,-87.6618
181924,LL,20,1.059271,-29.0032,1.0765,-148.7053,1.064449,92.5973,1241.8642,134.9964,1389.3302,18.8372,1672.3798,-91.2463
181924,LL,30,1.062566,-28.6637,1.073926,-148.3984,1.065004,92.4202,1401.3163,138.972,1515.9214,21.508,1686.843,-92.3427
181924,LL,40,1.064062,-28.4868,1.072555,-148.2508,1.06539,92.3334,1482.9348,140.81,1578.7507,22.7177,1695.2736,-92.8628
181924,3LG,0,0.855676,-33.648,0.855722,-153.6577,0.855931,86.3544,7551.9228,-86.4456,7551.0393,153.5514,7546.9981,33.5463
181924,3LG,10,1.064071,-29.316,1.064999,-149.2195,1.063335,90.7296,848.7397,126.9354,881.9683,7.3223,845.2122,-113.1161
181924,3LG,20,1.066527,-28.6468,1.06713,-148.5458,1.065634,91.3843,1273.9487,138.4185,1306.6073,18.5549,1267.4214,-101.6905
181924,3LG,30,1.067113,-28.4132,1.067608,-148.3122,1.066193,91.6125,1424.1215,141.1767,1456.3742,21.2808,1416.6596,-98.9513
181924,3LG,40,1.067358,-28.2946,1.0678,-148.1937,1.06643,91.7284,1500.4578,142.4383,1532.4858,22.53,1492.5527,-97.699
181993,SLG,0,0.833773,-29.9893,1.159677,-151.0051,1.088785,97.5984,4295.8359,-110.8757,2947.9922,13.0475,1935.0567,-63.343
181993,SLG,10,1.067727,-30.3784,1.082283,-147.0985,1.047992,92.3703,930.9282,120.1999,1887.8126,31.5828,1510.4089,-94.1334
181993,SLG,20,1.069788,-29.1624,1.074584,-147.424,1.057156,92.1763,1326.7047,135.1662,1816.0246,29.0565,1616.8281,-94.5881
181993,SLG,30,1.0696,-28.751,1.072282,-147.5518,1.060378,92.1336,1462.5202,139.0468,1796.4359,28.0731,1652.9375,-94.5667
181993,SLG,40,1.069339,-28.5454,1.071191,-147.619,1.06201,92.1166,1530.5422,140.8557,1787.5945,27.5585,1670.9888,-94.526
181993,LL,0,0.889855,-31.0234,0.828169,-152.9255,1.142141,92.7752,5522.2233,-70.36,6926.5461,132.3829,2459.6103,-90.0533
181993,LL,10,1.047256,-29.9506,1.083664,-149.7175,1.063811,93.1761,799.308,117.7388,1010.6336,6.899,1647.3121,-87.1421
181993,LL,20,1.059472,-29.0424,1.077164,-148.6972,1.063892,92.6099,1238.8349,134.3807,1393.1039,18.4844,1668.2149,-91.0381
181993,LL,30,1.062773,-28.6906,1.074367,-148.39,1.064606,92.4266,1399.4546,138.5663,1518.7496,21.2961,1683.638,-92.2209
181993,LL,40,1.064245,-28.5072,1.072882,-148.2434,1.065083,92.3374,1481.6234,140.5076,1580.9768,22.5669,1692.7346,-92.7783
181993,3LG,0,0.867126,-33.1105,0.867204,-153.1172,0.867387,86.8945,7051.0456,-87.7096,7049.4681,152.2803,7045.6833,32.2776
181993,3LG,10,1.0643,-29.332,1.065241,-149.2335,1.063538,90.7152,846.8997,126.0274,880.3965,6.4697,843.2841,-113.995
181993,3LG,20,1.06671,-28.6556,1.067314,-148.5534,1.065796,91.3761,1272.5824,138.0217,1305.4141,18.1779,1265.957,-102.0767
181993,3LG,30,1.067252,-28.4192,1.067745,-148.3173,1.066317,91.6068,1423.1827,140.9197,1455.5478,21.036,1415.6386,-99.202
181993,3LG,40,1.067469,-28.2991,1.067909,-148.1976,1.066528,91.7241,1499.7516,142.248,1531.8617,22.3484,1491.7785,-97.885
181994,SLG,0,0.849767,-30.0344,1.156849,-150.7267,1.084631,97.3493,3948.8522,-112.0946,2916.1692,13.1729,1920.8595,-64.2549
181994,SLG,10,1.068453,-30.4266,1.082332,-147.0483,1.04715,92.3464,927.9869,119.1317,1895.8227,31.8908,1497.6015,-94.1095
181994,SLG,20,1.070401,-29.1845,1.07449,-147.3952,1.056737,92.1571,1326.5983,134.6494,1818.418,29.2526,1610.395,-94.6381
181994,SLG,30,1.070063,-28.7647,1.072189,-147.5321,1.060106,92.1192,1462.8732,138.7052,1797.6035,28.2107,1648.7209,-94.612
181994,SLG,40,1.069706,-28.5551,1.071109,-147.604,1.061809,92.1052,1530.982,140.6007,1788.3018,27.6637,1667.8644,-94.5642
181994,LL,0,0.900726,-30.8072,0.846439,-152.6141,1.138111,92.842,5046.7117,-70.9505,6373.1778,131.5484,2444.6449,-90.3146
181994,LL,10,1.046933,-30.0049,1.084642,-149.7375,1.063213,93.2146,791.1376,116.629,1010.5553,5.9914,1645.6838,-86.6474
181994,LL,20,1.059591,-29.0809,1.07778,-148.6948,1.063401,92.6237,1234.2327,133.7899,1394.6558,18.1322,1664.4448,-90.8338
181994,LL,30,1.062929,-28.7177,1.074786,-148.3854,1.064244,92.4338,1396.4543,138.1683,1520.0979,21.0809,1680.6118,-92.1017
181994,LL,40,1.064393,-28.5278,1.073197,-148.2388,1.064801,92.342,1479.4262,140.2081,1582.0907,22.4125,1690.3011,-92.6959
181994,3LG,0,0.881362,-32.6985,0.881496,-152.7011,0.881629,87.3099,6472.2839,-88.3905,6469.538,151.5885,6466.3808,31.5914
181994,3LG,10,1.06445,-29.3498,1.065405,-149.2494,1.063665,90.6991,842.2765,125.1932,876.0296,5.6895,838.6111,-114.7992
181994,3LG,20,1.066865,-28.6665,1.067469,-148.5629,1.06593,91.366,1269.5227,137.6313,1302.5273,17.8074,1262.8172,-102.4559
181994,3LG,30,1.067375,-28.4267,1.067867,-148.3239,1.066424,91.5997,1421.0342,140.6619,1453.5121,20.7906,1413.419,-99.4532
181994,3LG,40,1.067569,-28.3048,1.068007,-148.2026,1.066616,91.7186,1498.1073,142.0553,1530.2997,22.1647,1490.0739,-98.073
181891,SLG,0,0.873451,-30.9106,1.152321,-150.2088,1.076626,96.9249,3396.6412,-108.6878,2805.9759,15.3028,1802.4612,-66.9179
181891,SLG,10,1.067475,-30.3611,1.082359,-147.0905,1.04782,92.3697,931.9832,121.1045,1894.7019,31.5592,1506.9955,-93.8994
181891,SLG,20,1.070005,-29.1684,1.074586,-147.4095,1.056918,92.1689,1328.1316,135.0695,1818.8639,29.1246,1613.4555,-94.5442
181891,SLG,30,1.069838,-28.7573,1.072263,-147.5399,1.060193,92.1266,1463.6098,138.902,1798.0172,28.1359,1650.4289,-94.5555
181891,SLG,40,1.069554,-28.5507,1.071167,-147.6092,1.061862,92.1105,1531.4231,140.7209,1788.6384,27.6118,1669.0282,-94.5245
181891,LL,0,0.918974,-31.0361,0.876319,-153.0564,1.131345,93.0151,4342.3903,-67.4948,5504.8131,134.4477,2351.9816,-89.7889
181891,LL,10,1.047165,-29.9023,1.08318,-149.7223,1.064053,93.1783,808.4763,119.0368,1008.1631,7.2434,1656.0135,-86.9864
181891,LL,20,1.059464,-29.0481,1.077384,-148.698,1.06374,92.6188,1240.0792,134.311,1394.455,18.3457,1668.8445,-90.9021
181891,LL,30,1.062823,-28.7006,1.074598,-148.3884,1.064435,92.4327,1399.5127,138.4211,1520.1801,21.1681,1683.1665,-92.1316
181891,LL,40,1.06431,-28.5168,1.073085,-148.2412,1.064929,92.3419,1481.3926,140.3668,1582.2395,22.4609,1692.0554,-92.7136
181891,3LG,0,0.906422,-32.8014,0.906686,-152.7986,0.906699,87.2118,5589.898,-85.2335,5584.2848,154.7363,5583.4383,34.7503
181891,3LG,10,1.064297,-29.3165,1.065211,-149.2183,1.063533,90.7288,854.1632,126.5359,887.5483,6.9593,850.3467,-113.5197
181891,3LG,20,1.066795,-28.6553,1.067391,-148.5529,1.065878,91.3759,1274.3573,137.9116,1307.2053,18.0723,1267.6157,-102.1942
181891,3LG,30,1.067335,-28.4206,1.067823,-148.3184,1.066395,91.6051,1423.8108,140.7964,1456.2026,20.917,1416.1796,-99.3291
181891,3LG,40,1.067541,-28.3007,1.067977,-148.199,1.066597,91.7223,1500.0069,142.1392,1532.1418,22.2433,1491.9638,-97.9962
255335,SLG,0,0.874536,-30.5081,1.153922,-150.1982,1.0759,96.9921,3390.0135,-112.1546,2869.9784,14.0693,1868.2184,-65.362
255335,SLG,10,1.069214,-30.5209,1.082676,-146.9673,1.045658,92.3204,913.3494,117.4691,1912.4816,32.3665,1475.243,-93.9452
255335,SLG,20,1.071273,-29.2353,1.074471,-147.3446,1.055929,92.1304,1320.4064,133.7655,1824.1296,29.5951,1598.3068,-94.6841
255335,SLG,30,1.07076,-28.7979,1.072121,-147.4967,1.059567,92.0981,1459.2325,138.1069,1800.6161,28.4583,1640.6437,-94.6692
255335,SLG,40,1.070271,-28.5796,1.071036,-147.5769,1.061408,92.0881,1528.4694,140.1493,1790.2382,27.8558,1661.8258,-94.6166
255335,LL,0,0.922415,-30.6337,0.878057,-152.7284,1.132039,93.0062,4160.5293,-69.5094,5399.0884,132.8557,2417.6564,-90.3108
255335,LL,10,1.045875,-30.0885,1.086028,-149.7947,1.062488,93.29,767.9881,115.0583,1001.6985,4.5371,1647.2213,-85.7513
255335,LL,20,1.059512,-29.1522,1.078816,-148.7046,1.06263,92.6556,1219.7609,132.8172,1392.3379,17.5268,1658.8544,-90.4242
255335,LL,30,1.06302,-28.7699,1.075511,-148.3867,1.063652,92.4519,1386.4652,137.4919,1518.9457,20.7058,1675.6775,-91.8569
255335,LL,40,1.064519,-28.5683,1.073748,-148.2379,1.064331,92.3542,1471.8603,139.6921,1581.3416,22.1419,1686.2023,-92.5248
255335,3LG,0,0.909364,-32.4654,0.90966,-152.4602,0.909655,87.5506,5423.6001,-86.8679,5417.4655,153.0898,5416.5612,33.1073
255335,3LG,10,1.064478,-29.3839,1.065468,-149.2807,1.063666,90.6682,827.017,124.0249,861.2991,4.6036,823.4262,-115.9143
255335,3LG,20,1.06702,-28.6907,1.067631,-148.585,1.066052,91.3432,1258.9061,137.0131,1292.2609,17.2216,1252.1363,-103.0534
255335,3LG,30,1.067517,-28.4443,1.06801,-148.3399,1.06654,91.583,1413.3341,140.2407,1446.0416,20.3899,1405.6403,-99.8621
255335,3LG,40,1.067691,-28.3185,1.068128,-148.2151,1.066717,91.7055,1492.108,141.7359,1524.4682,21.8604,1484.0016,-98.3837
182030,SLG,0,0.880599,-30.8087,1.15318,-150.0283,1.073019,96.8868,3248.3804,-110.8346,2849.8678,14.8199,1829.4673,-65.7504
182030,SLG,10,1.069022,-30.5,1.082613,-146.9771,1.04585,92.3225,915.4986,118.032,1911.884,32.3005,1477.3411,-93.914
182030,SLG,20,1.071202,-29.2306,1.074467,-147.3473,1.055974,92.1316,1321.0457,133.8658,1824.1447,29.5765,1598.7801,-94.6719
182030,SLG,30,1.070725,-28.796,1.072122,-147.4979,1.059587,92.0987,1459.51,138.1477,1800.65,28.4499,1640.842,-94.6633
182030,SLG,40,1.070251,-28.5785,1.071037,-147.5776,1.061418,92.0885,1528.622,140.1712,1790.265,27.8511,1661.9335,-94.6131
182030,LL,0,0.927457,-30.6139,0.88734,-152.9201,1.130528,93.0788,3931.2804,-68.7296,5118.9331,133.9929,2400.1339,-89.9399
182030,LL,10,1.046007,-30.0659,1.085654,-149.7825,1.062613,93.278,772.0923,115.6638,1002.5432,4.999,1648.7487,-85.8377
182030,LL,20,1.059509,-29.1457,1.078716,-148.7032,1.06268,92.6534,1221.0104,132.9254,1392.5595,17.6018,1659.4772,-90.4379
182030,LL,30,1.063013,-28.767,1.075468,-148.3864,1.063676,92.4511,1387.025,137.536,1519.0405,20.735,1675.9743,-91.8614
182030,LL,40,1.064513,-28.5667,1.073724,-148.2377,1.064345,92.3538,1472.1741,139.716,1581.3944,22.1573,1686.3729,-92.5269
182030,3LG,0,0.917475,-32.4694,0.917828,-152.4624,0.917777,87.5488,5133.1776,-85.8694,5125.8297,154.0835,5125.7817,34.1052
182030,3LG,10,1.064414,-29.3742,1.065396,-149.2712,1.063603,90.6774,829.9344,124.472,864.1789,5.0326,826.3195,-115.4727
182030,3LG,20,1.066996,-28.6883,1.067606,-148.5826,1.06603,91.3456,1259.8413,137.0895,1293.1782,17.2958,1253.0708,-102.9779
182030,3LG,30,1.067505,-28.4432,1.067997,-148.3388,1.066529,91.584,1413.7656,140.2716,1446.4653,20.42,1406.0726,-99.8315
182030,3LG,40,1.067684,-28.3179,1.068121,-148.2145,1.06671,91.7061,1492.3541,141.7526,1524.7101,21.8766,1484.2485,-98.3672
182153,SLG,0,0.911624,-31.4895,1.151482,-149.2959,1.060263,96.4944,2544.985,-110.0314,2823.9958,16.0693,1770.4354,-66.3354
182153,SLG,10,1.068619,-30.8461,1.085422,-146.8007,1.041797,92.4059,833.7046,112.7528,1972.2179,33.2176,1448.3385,-92.5617
182153,SLG,20,1.072629,-29.4192,1.075105,-147.2166,1.053541,92.0942,1278.8781,131.476,1845.2096,30.4342,1564.6213,-94.6065
182153,SLG,30,1.072018,-28.9229,1.072396,-147.404,1.057934,92.0638,1431.8397,136.552,1812.5848,29.097,1617.5267,-94.7056
182153,SLG,40,1.071352,-28.6735,1.07118,-147.505,1.060175,92.0584,1508.1866,138.9728,1798.3091,28.3621,1644.3382,-94.6762
182153,LL,0,0.960603,-30.5856,0.926753,-153.3685,1.122965,93.2849,2735.7252,-60.7531,3921.3768,140.0927,2378.6986,-90.0635
182153,LL,10,1.042159,-30.1764,1.087595,-150.0636,1.062732,93.4853,708.559,112.9895,934.0609,0.0871,1676.8081,-83.774
182153,LL,20,1.058006,-29.3474,1.081346,-148.7982,1.061144,92.7737,1156.6837,130.529,1364.243,15.8259,1650.4993,-89.1599
182153,LL,30,1.062409,-28.9205,1.07736,-148.4341,1.062371,92.5233,1341.5602,135.8518,1500.9968,19.6798,1665.5629,-91.0743
182153,LL,40,1.064231,-28.6877,1.075171,-148.2674,1.063271,92.404,1437.3047,138.4251,1568.0644,21.4131,1677.0714,-91.9708
182153,3LG,0,0.95608,-32.5536,0.956818,-152.5306,0.956371,87.4794,3797.7606,-78.4995,3781.8971,161.431,3789.5781,41.48
182153,3LG,10,1.063845,-29.4941,1.064986,-149.3887,1.063073,90.5669,759.6873,121.1261,795.2599,1.8582,757.3732,-118.6802
182153,3LG,20,1.066975,-28.775,1.067653,-148.6649,1.065966,91.2646,1210.6892,135.5743,1245.068,15.843,1204.3323,-104.4322
182153,3LG,30,1.06758,-28.507,1.068106,-148.3991,1.066559,91.5238,1377.9052,139.2586,1411.2996,19.4478,1370.3653,-100.8074
182153,3LG,40,1.067777,-28.3679,1.068234,-148.2618,1.066765,91.6586,1464.307,140.989,1497.1707,21.1432,1456.267,-99.1046
182158,SLG,0,0.922589,-31.4942,1.149406,-149.0987,1.057543,96.3072,2309.1886,-111.3631,2800.5705,16.2801,1759.7952,-67.0786
182158,SLG,10,1.068307,-30.9589,1.086537,-146.7413,1.040374,92.4479,807.9475,111.1174,1996.4255,33.4621,1442.2806,-91.9061
182158,SLG,20,1.073213,-29.4808,1.075293,-147.1674,1.052652,92.0775,1267.2825,130.6406,1853.3968,30.7389,1552.006,-94.567
182158,SLG,30,1.072562,-28.9638,1.072446,-147.3684,1.057335,92.0479,1424.7278,135.9773,1817.0729,29.3346,1608.8777,-94.721
182158,SLG,40,1.071819,-28.7036,1.071186,-147.4774,1.059728,92.0447,1503.1605,138.5362,1801.245,28.5518,1637.8174,-94.7028
182158,LL,0,0.968974,-30.4869,0.938666,-153.1924,1.120005,93.3105,2406.8154,-59.5535,3553.9999,140.2639,2362.2377,-90.2947
182158,LL,10,1.042098,-30.1005,1.087055,-150.1571,1.063542,93.5111,731.4089,113.8744,907.3094,-1.685,1697.3797,-83.4853
182158,LL,20,1.057476,-29.4141,1.082352,-148.8286,1.060575,92.8188,1137.3935,129.7349,1357.6458,15.1483,1648.4659,-88.6652
182158,LL,30,1.062238,-28.9734,1.0781,-148.4464,1.061856,92.5494,1328.0492,135.2523,1497.4121,19.2769,1662.0204,-90.77
182158,LL,40,1.064184,-28.7299,1.075737,-148.2735,1.062841,92.4215,1427.045,137.954,1565.6118,21.1304,1673.6816,-91.7584
182158,3LG,0,0.965949,-32.3604,0.966812,-152.3287,0.966194,87.6785,3410.0283,-77.7467,3391.1522,162.1575,3401.9674,42.2292
182158,3LG,10,1.063696,-29.5254,1.064884,-149.4201,1.062944,90.5378,741.7735,120.1372,777.6591,0.9121,739.8182,-119.6355
182158,3LG,20,1.067015,-28.8005,1.067715,-148.689,1.06599,91.2409,1197.4425,135.0409,1232.1552,15.3305,1191.1616,-104.946
182158,3LG,30,1.067646,-28.5262,1.068182,-148.417,1.066608,91.5057,1368.1122,138.8884,1401.7279,19.0922,1360.5617,-101.1655
182158,3LG,40,1.067844,-28.383,1.068306,-148.2759,1.066816,91.6442,1456.6069,140.7054,1489.6289,20.8709,1448.5322,-99.3797
182162,SLG,0,0.93192,-31.4456,1.147376,-148.9458,1.055629,96.1421,2112.269,-113.212,2778.0697,16.3772,1755.732,-67.8101
182162,SLG,10,1.067884,-31.0714,1.087733,-146.684,1.038942,92.4953,781.6564,109.5063,2021.5238,33.6666,1437.1319,-91.1831
182162,SLG,20,1.073793,-29.5427,1.075496,-147.1176,1.051746,92.0612,1255.92,129.7996,1862.0047,31.0395,1539.217,-94.5148
182162,SLG,30,1.073117,-29.0046,1.072495,-147.3321,1.056726,92.0316,1417.9683,135.3965,1821.7457,29.5732,1600.0859,-94.7334
182162,SLG,40,1.0723,-28.7335,1.071186,-147.4493,1.059275,92.0304,1498.4863,138.0946,1804.2693,28.7434,1631.1933,-94.7292
182162,LL,0,0.975859,-30.3952,0.94831,-152.9898,1.117411,93.319,2137.5014,-58.6918,3253.0159,139.9472,2347.3083,-90.5662
182162,LL,10,1.04208,-30.0265,1.08647,-150.2469,1.064348,93.5353,754.0133,114.6331,881.2118,-3.4301,1718.0473,-83.2337
182162,LL,20,1.056893,-29.4792,1.083384,-148.8611,1.060027,92.8663,1118.4454,128.9685,1351.4017,14.4346,1647.2423,-88.1519
182162,LL,30,1.062052,-29.0262,1.078867,-148.4589,1.061336,92.5767,1314.8576,134.6553,1494.3238,18.8562,1658.6851,-90.4528
182162,LL,40,1.064134,-28.7722,1.076323,-148.2792,1.062401,92.4396,1417.096,137.4805,1563.6122,20.8373,1670.3346,-91.5381
182162,3LG,0,0.973778,-32.172,0.974738,-152.1322,0.973968,87.8718,3092.6078,-77.4262,3071.2863,162.4458,3084.852,42.5451
182162,3LG,10,1.063554,-29.5549,1.064787,-149.4499,1.062828,90.5103,725.0605,119.159,761.2213,-0.0271,723.4887,-120.5838
182162,3LG,20,1.067061,-28.8251,1.067785,-148.7121,1.066023,91.2182,1184.9793,134.5038,1220.0417,14.814,1178.791,-105.4627
182162,3LG,30,1.067719,-28.5447,1.068266,-148.4343,1.066664,91.4884,1358.8925,138.5137,1392.7402,18.7326,1351.332,-101.5275
182162,3LG,40,1.067917,-28.3977,1.068384,-148.2895,1.066874,91.6303,1449.3581,140.4178,1482.5445,20.5948,1441.246,-99.6584
